/*--------------------------------*- C++ -*----------------------------------*\
| =========                 |                                                 |
| \\      /  F ield         | OpenFOAM: The Open Source CFD Toolbox           |
|  \\    /   O peration     | Version:  v2012                                 |
|   \\  /    A nd           | Web:      www.openfoam.com                      |
|    \\/     M anipulation  |                                                 |
\*---------------------------------------------------------------------------*/

FoamFile
{
    version     2.0;
    format      ascii;
    class       dictionary;
    location    "system";
    object      blockMeshDict;
}
// * * * * * * * * * * * * * * * * * * * * * * * * * * * * * * * * * * * * * //

convertToMeters 1;     // STL is assumed already in meters

vertices (
    (-1 -1 -1)
    ( 1.2 -1 -1)
    ( 1.2  1 -1)
    (-1  1 -1)
    (-1 -1  1.1)
    ( 1.2 -1  1.1)
    ( 1.2  1  1.1)
    (-1  1  1.1)
);

blocks
(
    //                    (X  X  X) controls LoD

    //hex (0 1 2 3 4 5 6 7) (60 60 60) simpleGrading (1 1 1)
    hex (0 1 2 3 4 5 6 7) (20 20 20) simpleGrading (1 1 1)
);

edges
(
);

boundary
(
    box
    {
        type wall;
        faces
        (
            (0 1 2 3)
            (4 5 6 7)
            (0 4 7 3)
            (1 5 6 2)
            (3 2 6 7)
            (0 1 5 4)
        );
    }
);

mergePatchPairs
(
);

// ************************************************************************* //
