/*--------------------------------*- C++ -*----------------------------------*\
| =========                 |                                                 |
| \\      /  F ield         | OpenFOAM: The Open Source CFD Toolbox           |
|  \\    /   O peration     | Version:  v2012                                 |
|   \\  /    A nd           | Web:      www.openfoam.com                      |
|    \\/     M anipulation  |                                                 |
\*---------------------------------------------------------------------------*/

FoamFile
{
    version     2.0;
    format      ascii;
    class       dictionary;
    location    "system";
    object      createPatchDict;
}

// Global options
pointSync   true;
matchTolerance 0.0001;

// Create a patch from existing faceZone or cellZone

patches
(
    {
        name        wall;
        patchInfo
        {
            type    wall;
        }
        constructFrom patches;
        patches     ( box );
    }

);
